<?xml version="1.0" encoding="UTF-8"?>
<routes xmlns:xsi="http://www.w3.org/2001/XMLSchema-instance" xsi:noNamespaceSchemaLocation="http://sumo.dlr.de/xsd/routes_file.xsd">

    <!-- Human-driven vehicles (HDV) -->
    <vType id="simple_pkw" accel="2.6" decel="4.5" sigma="0.5" length="5.0" minGap="2.5" maxSpeed="70.0" tau="1.0" color="1,0,0"/>

    <!-- CAV: platoon leader (connected, acts like an intelligent precise vehicle) -->
    <vType id="simple_pkw_as_platoon_leader" accel="3.0" decel="4.5" sigma="0.05" length="5.0" minGap="1.0" maxSpeed="70.0" tau="0.6" color="0,1,0"/>


    <route id="r_0" edges="Donore_DownL2OL Circular_OL2OR Clanbrassil_OR2DownR"/>
    <route id="r_1" edges="Donore_DownL2OL Circular_OL2OR Circular_OR2Right"/>
    <route id="r_2" edges="Donore_DownL2OL Circular_OL2OR Clanbrassil_OR2UpR"/>
    <route id="r_3" edges="Donore_DownL2OL Donore_OL2UpL"/>
    <route id="r_4" edges="Donore_DownL2OL Circular_OL2Left"/>

    <route id="r_5" edges="Clanbrassil_DownR2OR Circular_OR2Right"/>
    <route id="r_6" edges="Clanbrassil_DownR2OR Clanbrassil_OR2UpR"/>
    <route id="r_7" edges="Clanbrassil_DownR2OR Circular_OR2OL Donore_OL2UpL"/>
    <route id="r_8" edges="Clanbrassil_DownR2OR Circular_OR2OL Circular_OL2Left"/>
    <route id="r_9" edges="Clanbrassil_DownR2OR Circular_OR2OL Donore_OL2DownL"/>

    <route id="r_10" edges="Circular_Right2OR Clanbrassil_OR2UpR"/>
    <route id="r_11" edges="Circular_Right2OR Circular_OR2OL Donore_OL2UpL"/>
    <route id="r_12" edges="Circular_Right2OR Circular_OR2OL Circular_OL2Left"/>
    <route id="r_13" edges="Circular_Right2OR Circular_OR2OL Donore_OL2DownL"/>
    <route id="r_14" edges="Circular_Right2OR Clanbrassil_OR2DownR"/>

    <route id="r_15" edges="Clanbrassil_UpR2OR Circular_OR2OL Donore_OL2UpL"/>
    <route id="r_16" edges="Clanbrassil_UpR2OR Circular_OR2OL Circular_OL2Left"/>
    <route id="r_17" edges="Clanbrassil_UpR2OR Circular_OR2OL Donore_OL2DownL"/>
    <route id="r_18" edges="Clanbrassil_UpR2OR Clanbrassil_OR2DownR"/>
    <route id="r_19" edges="Clanbrassil_UpR2OR Circular_OR2Right"/>

    <route id="r_20" edges="Donore_UpL2OL Circular_OL2OR Clanbrassil_OR2DownR"/>
    <route id="r_21" edges="Donore_UpL2OL Circular_OL2OR Circular_OR2Right"/>
    <route id="r_22" edges="Donore_UpL2OL Circular_OL2OR Clanbrassil_OR2UpR"/>
    <route id="r_23" edges="Donore_UpL2OL Donore_OL2DownL"/>
    <route id="r_24" edges="Donore_UpL2OL Circular_OL2Left"/>

    <route id="r_25" edges="Circular_Left2OL Donore_OL2DownL"/>
    <route id="r_26" edges="Circular_Left2OL Circular_OL2OR Clanbrassil_OR2DownR"/>
    <route id="r_27" edges="Circular_Left2OL Circular_OL2OR Circular_OR2Right"/>
    <route id="r_28" edges="Circular_Left2OL Circular_OL2OR Clanbrassil_OR2UpR"/>
    <route id="r_29" edges="Circular_Left2OL Donore_OL2UpL"/>

    <routeDistribution id="dist_donore_south" routes="r_0 r_1 r_2 r_3 r_4" probabilities="0.2 0.2 0.2 0.2 0.2"/>
    <routeDistribution id="dist_donore_north" routes="r_20 r_21 r_22 r_23 r_24" probabilities="0.2 0.2 0.2 0.2 0.2"/>
    <routeDistribution id="dist_clan_down" routes="r_5 r_6 r_7 r_8 r_9" probabilities="0.2 0.2 0.2 0.2 0.2"/>
    <routeDistribution id="dist_circ_right" routes="r_10 r_11 r_12 r_13 r_14" probabilities="0.2 0.2 0.2 0.2 0.2"/>
    <routeDistribution id="dist_clan_up" routes="r_15 r_16 r_17 r_18 r_19" probabilities="0.2 0.2 0.2 0.2 0.2"/>
    <routeDistribution id="dist_circ_left" routes="r_25 r_26 r_27 r_28 r_29" probabilities="0.2 0.2 0.2 0.2 0.2"/>

    <flow id="f07_clan_up" begin="0" end="3600" vehsPerHour="205" type="simple_pkw_as_platoon_leader" route="dist_clan_up" departLane="best"/>
    <flow id="f07_clan_down" begin="0" end="3600" vehsPerHour="205" type="simple_pkw_as_platoon_leader" route="dist_clan_down" departLane="best"/>
    <flow id="f07_donore_north" begin="0" end="3600" vehsPerHour="126" type="simple_pkw_as_platoon_leader" route="dist_donore_north" departLane="best"/>
    <flow id="f07_donore_south" begin="0" end="3600" vehsPerHour="125" type="simple_pkw_as_platoon_leader" route="dist_donore_south" departLane="best"/>
    <flow id="f07_circ_left" begin="0" end="3600" vehsPerHour="170" type="simple_pkw_as_platoon_leader" route="dist_circ_left" departLane="best"/>
    <flow id="f07_circ_right" begin="0" end="3600" vehsPerHour="278" type="simple_pkw_as_platoon_leader" route="dist_circ_right" departLane="best"/>
    

    <flow id="f08_clan_up" begin="3600" end="7200" vehsPerHour="185" type="simple_pkw_as_platoon_leader" route="dist_clan_up" departLane="best"/>
    <flow id="f08_clan_down" begin="3600" end="7200" vehsPerHour="184" type="simple_pkw_as_platoon_leader" route="dist_clan_down" departLane="best"/>
    <flow id="f08_donore_north" begin="3600" end="7200" vehsPerHour="140" type="simple_pkw_as_platoon_leader" route="dist_donore_north" departLane="best"/>
    <flow id="f08_donore_south" begin="3600" end="7200" vehsPerHour="139" type="simple_pkw_as_platoon_leader" route="dist_donore_south" departLane="best"/>
    <flow id="f08_circ_left" begin="3600" end="7200" vehsPerHour="208" type="simple_pkw_as_platoon_leader" route="dist_circ_left" departLane="best"/>
    <flow id="f08_circ_right" begin="3600" end="7200" vehsPerHour="267" type="simple_pkw_as_platoon_leader" route="dist_circ_right" departLane="best"/>


    <flow id="f09_clan_up" begin="7200" end="10800" vehsPerHour="216" type="simple_pkw_as_platoon_leader" route="dist_clan_up" departLane="best"/>
    <flow id="f09_clan_down" begin="7200" end="10800" vehsPerHour="215" type="simple_pkw_as_platoon_leader" route="dist_clan_down" departLane="best"/>
    <flow id="f09_donore_north" begin="7200" end="10800" vehsPerHour="116" type="simple_pkw_as_platoon_leader" route="dist_donore_north" departLane="best"/>
    <flow id="f09_donore_south" begin="7200" end="10800" vehsPerHour="116" type="simple_pkw_as_platoon_leader" route="dist_donore_south" departLane="best"/>
    <flow id="f09_circ_left" begin="7200" end="10800" vehsPerHour="203" type="simple_pkw_as_platoon_leader" route="dist_circ_left" departLane="best"/>
    <flow id="f09_circ_right" begin="7200" end="10800" vehsPerHour="254" type="simple_pkw_as_platoon_leader" route="dist_circ_right" departLane="best"/>


    <flow id="f10_clan_up" begin="10800" end="14400" vehsPerHour="176" type="simple_pkw_as_platoon_leader" route="dist_clan_up" departLane="best"/>
    <flow id="f10_clan_down" begin="10800" end="14400" vehsPerHour="175" type="simple_pkw_as_platoon_leader" route="dist_clan_down" departLane="best"/>
    <flow id="f10_donore_north" begin="10800" end="14400" vehsPerHour="82" type="simple_pkw_as_platoon_leader" route="dist_donore_north" departLane="best"/>
    <flow id="f10_donore_south" begin="10800" end="14400" vehsPerHour="81" type="simple_pkw_as_platoon_leader" route="dist_donore_south" departLane="best"/>
    <flow id="f10_circ_left" begin="10800" end="14400" vehsPerHour="191" type="simple_pkw_as_platoon_leader" route="dist_circ_left" departLane="best"/>
    <flow id="f10_circ_right" begin="10800" end="14400" vehsPerHour="244" type="simple_pkw_as_platoon_leader" route="dist_circ_right" departLane="best"/>


    <flow id="f11_clan_up" begin="14400" end="18000" vehsPerHour="155" type="simple_pkw_as_platoon_leader" route="dist_clan_up" departLane="best"/>
    <flow id="f11_clan_down" begin="14400" end="18000" vehsPerHour="154" type="simple_pkw_as_platoon_leader" route="dist_clan_down" departLane="best"/>
    <flow id="f11_donore_north" begin="14400" end="18000" vehsPerHour="77" type="simple_pkw_as_platoon_leader" route="dist_donore_north" departLane="best"/>
    <flow id="f11_donore_south" begin="14400" end="18000" vehsPerHour="76" type="simple_pkw_as_platoon_leader" route="dist_donore_south" departLane="best"/>
    <flow id="f11_circ_left" begin="14400" end="18000" vehsPerHour="198" type="simple_pkw_as_platoon_leader" route="dist_circ_left" departLane="best"/>
    <flow id="f11_circ_right" begin="14400" end="18000" vehsPerHour="214" type="simple_pkw_as_platoon_leader" route="dist_circ_right" departLane="best"/>


    <flow id="f12_clan_up" begin="18000" end="21600" vehsPerHour="135" type="simple_pkw_as_platoon_leader" route="dist_clan_up" departLane="best"/>
    <flow id="f12_clan_down" begin="18000" end="21600" vehsPerHour="134" type="simple_pkw_as_platoon_leader" route="dist_clan_down" departLane="best"/>
    <flow id="f12_donore_north" begin="18000" end="21600" vehsPerHour="73" type="simple_pkw_as_platoon_leader" route="dist_donore_north" departLane="best"/>
    <flow id="f12_donore_south" begin="18000" end="21600" vehsPerHour="73" type="simple_pkw_as_platoon_leader" route="dist_donore_south" departLane="best"/>
    <flow id="f12_circ_left" begin="18000" end="21600" vehsPerHour="194" type="simple_pkw_as_platoon_leader" route="dist_circ_left" departLane="best"/>
    <flow id="f12_circ_right" begin="18000" end="21600" vehsPerHour="195" type="simple_pkw_as_platoon_leader" route="dist_circ_right" departLane="best"/>


    <flow id="f13_clan_up" begin="21600" end="25200" vehsPerHour="124" type="simple_pkw_as_platoon_leader" route="dist_clan_up" departLane="best"/>
    <flow id="f13_clan_down" begin="21600" end="25200" vehsPerHour="124" type="simple_pkw_as_platoon_leader" route="dist_clan_down" departLane="best"/>
    <flow id="f13_donore_north" begin="21600" end="25200" vehsPerHour="74" type="simple_pkw_as_platoon_leader" route="dist_donore_north" departLane="best"/>
    <flow id="f13_donore_south" begin="21600" end="25200" vehsPerHour="73" type="simple_pkw_as_platoon_leader" route="dist_donore_south" departLane="best"/>
    <flow id="f13_circ_left" begin="21600" end="25200" vehsPerHour="221" type="simple_pkw_as_platoon_leader" route="dist_circ_left" departLane="best"/>
    <flow id="f13_circ_right" begin="21600" end="25200" vehsPerHour="197" type="simple_pkw_as_platoon_leader" route="dist_circ_right" departLane="best"/>


    <flow id="f14_clan_up" begin="25200" end="28800" vehsPerHour="135" type="simple_pkw_as_platoon_leader" route="dist_clan_up" departLane="best"/>
    <flow id="f14_clan_down" begin="25200" end="28800" vehsPerHour="134" type="simple_pkw_as_platoon_leader" route="dist_clan_down" departLane="best"/>
    <flow id="f14_donore_north" begin="25200" end="28800" vehsPerHour="76" type="simple_pkw_as_platoon_leader" route="dist_donore_north" departLane="best"/>
    <flow id="f14_donore_south" begin="25200" end="28800" vehsPerHour="75" type="simple_pkw_as_platoon_leader" route="dist_donore_south" departLane="best"/>
    <flow id="f14_circ_left" begin="25200" end="28800" vehsPerHour="228" type="simple_pkw_as_platoon_leader" route="dist_circ_left" departLane="best"/>
    <flow id="f14_circ_right" begin="25200" end="28800" vehsPerHour="210" type="simple_pkw_as_platoon_leader" route="dist_circ_right" departLane="best"/>


    <flow id="f15_clan_up" begin="28800" end="32400" vehsPerHour="130" type="simple_pkw_as_platoon_leader" route="dist_clan_up" departLane="best"/>
    <flow id="f15_clan_down" begin="28800" end="32400" vehsPerHour="129" type="simple_pkw_as_platoon_leader" route="dist_clan_down" departLane="best"/>
    <flow id="f15_donore_north" begin="28800" end="32400" vehsPerHour="69" type="simple_pkw_as_platoon_leader" route="dist_donore_north" departLane="best"/>
    <flow id="f15_donore_south" begin="28800" end="32400" vehsPerHour="69" type="simple_pkw_as_platoon_leader" route="dist_donore_south" departLane="best"/>
    <flow id="f15_circ_left" begin="28800" end="32400" vehsPerHour="244" type="simple_pkw_as_platoon_leader" route="dist_circ_left" departLane="best"/>
    <flow id="f15_circ_right" begin="28800" end="32400" vehsPerHour="198" type="simple_pkw_as_platoon_leader" route="dist_circ_right" departLane="best"/>


    <flow id="f16_clan_up" begin="32400" end="36000" vehsPerHour="128" type="simple_pkw_as_platoon_leader" route="dist_clan_up" departLane="best"/>
    <flow id="f16_clan_down" begin="32400" end="36000" vehsPerHour="128" type="simple_pkw_as_platoon_leader" route="dist_clan_down" departLane="best"/>
    <flow id="f16_donore_north" begin="32400" end="36000" vehsPerHour="65" type="simple_pkw_as_platoon_leader" route="dist_donore_north" departLane="best"/>
    <flow id="f16_donore_south" begin="32400" end="36000" vehsPerHour="64" type="simple_pkw_as_platoon_leader" route="dist_donore_south" departLane="best"/>
    <flow id="f16_circ_left" begin="32400" end="36000" vehsPerHour="217" type="simple_pkw_as_platoon_leader" route="dist_circ_left" departLane="best"/>
    <flow id="f16_circ_right" begin="32400" end="36000" vehsPerHour="213" type="simple_pkw_as_platoon_leader" route="dist_circ_right" departLane="best"/>


    <flow id="f17_clan_up" begin="36000" end="39600" vehsPerHour="134" type="simple_pkw_as_platoon_leader" route="dist_clan_up" departLane="best"/>
    <flow id="f17_clan_down" begin="36000" end="39600" vehsPerHour="134" type="simple_pkw_as_platoon_leader" route="dist_clan_down" departLane="best"/>
    <flow id="f17_donore_north" begin="36000" end="39600" vehsPerHour="65" type="simple_pkw_as_platoon_leader" route="dist_donore_north" departLane="best"/>
    <flow id="f17_donore_south" begin="36000" end="39600" vehsPerHour="64" type="simple_pkw_as_platoon_leader" route="dist_donore_south" departLane="best"/>
    <flow id="f17_circ_left" begin="36000" end="39600" vehsPerHour="129" type="simple_pkw_as_platoon_leader" route="dist_circ_left" departLane="best"/>
    <flow id="f17_circ_right" begin="36000" end="39600" vehsPerHour="199" type="simple_pkw_as_platoon_leader" route="dist_circ_right" departLane="best"/>


    <flow id="f18_clan_up" begin="39600" end="43200" vehsPerHour="130" type="simple_pkw_as_platoon_leader" route="dist_clan_up" departLane="best"/>
    <flow id="f18_clan_down" begin="39600" end="43200" vehsPerHour="129" type="simple_pkw_as_platoon_leader" route="dist_clan_down" departLane="best"/>
    <flow id="f18_donore_north" begin="39600" end="43200" vehsPerHour="74" type="simple_pkw_as_platoon_leader" route="dist_donore_north" departLane="best"/>
    <flow id="f18_donore_south" begin="39600" end="43200" vehsPerHour="73" type="simple_pkw_as_platoon_leader" route="dist_donore_south" departLane="best"/>
    <flow id="f18_circ_left" begin="39600" end="43200" vehsPerHour="157" type="simple_pkw_as_platoon_leader" route="dist_circ_left" departLane="best"/>
    <flow id="f18_circ_right" begin="39600" end="43200" vehsPerHour="189" type="simple_pkw_as_platoon_leader" route="dist_circ_right" departLane="best"/>


</routes>