<?xml version="1.0" encoding="UTF-8"?>

<!-- generated on 2024-10-02 23:28:17 by Eclipse SUMO sumo Version 1.20.0
-->

<configuration xmlns:xsi="http://www.w3.org/2001/XMLSchema-instance" xsi:noNamespaceSchemaLocation="http://sumo.dlr.de/xsd/sumoConfiguration.xsd">

    <input>
        <net-file value="four.net.xml"/>
        <route-files value="four.rou.xml"/>
    </input>

</configuration>
